ADC-DER-Testbed/DummyTest/Test_Demo_Prep/GLD/IEEE_123_feeder_0.glm
clock {
	timezone PST8;
	starttime '2013-07-29 00:00:00';
	stoptime '2013-07-30 00:00:00';
}

#include "../include/schedules/appliance_schedules.glm"
#include "../include/schedules/water_and_setpoint_schedule_v5.glm"
#define stylesheet=http://gridlab-d.svn.sourceforge.net/viewvc/gridlab-d/trunk/core/gridlabd-2_0

#set minimum_timestep=15.000000
#set profiler=1
#set relax_naming_rules=1
#set randomseed=10
#set suppress_repeat_messages=TRUE
module market {
}

module tape {
}

module climate {
}

module residential {
	implicit_enduses NONE;
}

module powerflow {
	solver_method FBS;
	line_limits TRUE;
	default_maximum_voltage_error 1e-4;
}

object climate {
	name ClimateWeather;
	interpolate QUADRATIC;
	tmyfile ../include/weather/AZ-Phoenix.tmy3;
};

object substation {
	phases ABCN;
	nominal_voltage 2401.7771;
	power_convergence_value 100;
	name network_node;
	positive_sequence_voltage 2401.7771;
	bustype SWING;
	base_power 100;
};

object transformer_configuration {
	name trans_config_to_feeder;
	primary_voltage 2401.7771;
	install_type PADMOUNT;
	impedance 0.00033+0.0022j;
	secondary_voltage 2401.7771;
	connect_type WYE_WYE;
	power_rating 5.8 MVA;
};

object transformer {
	phases ABCN;
	from network_node;
	name substation_transformer;
	to n150;
	configuration trans_config_to_feeder;
	groupid Distribution_Trans;
};

object overhead_line_conductor {
	geometric_mean_radius 0.0244;
	resistance 0.30600;
	name olc10001;
};

object overhead_line_conductor {
	geometric_mean_radius 0.004460;
	resistance 1.12000;
	name olc10009;
};

object overhead_line_conductor {
	geometric_mean_radius 0.008140;
	resistance 0.59200;
	name olc10002;
};

object underground_line_conductor {
	name ulc10003;
	conductor_resistance 0.970000;
	shield_resistance 0.000000;
	neutral_gmr 0.011100;
	outer_diameter 1.060000;
	neutral_strands 6.000000;
	neutral_resistance 0.970000;
	neutral_diameter 0.0640837;
	conductor_diameter 0.368000;
	shield_gmr 0.000000;
	conductor_gmr 0.011100;
};

object triplex_line_conductor {
	name tlc1000;
	rating.winter.emergency 1000.0;
	geometric_mean_radius 0.0158;
	resistance 0.48;
	rating.summer.emergency 1000.0;
	rating.winter.continuous 1000.0;
	rating.summer.continuous 1000.0;
};

object line_spacing {
	distance_AN 5.656854;
	name ls5001;
	distance_CN 5.0;
	distance_BC 4.5;
	distance_AB 2.5;
	distance_AC 7.0;
	distance_BN 4.272002;
};

object line_spacing {
	distance_AN 5.0;
	name ls5002;
	distance_CN 5.656854;
	distance_BC 7.0;
	distance_AB 4.5;
	distance_AC 2.5;
	distance_BN 4.272002;
};

object line_spacing {
	distance_AN 5.0;
	name ls5003;
	distance_CN 4.272002;
	distance_BC 2.5;
	distance_AB 7.0;
	distance_AC 4.5;
	distance_BN 5.656854;
};

object line_spacing {
	distance_AN 5.0;
	name ls5004;
	distance_CN 5.656854;
	distance_BC 2.5;
	distance_AB 4.5;
	distance_AC 7.0;
	distance_BN 4.272002;
};

object line_spacing {
	distance_BC 7.0;
	name ls5005;
	distance_CN 5.0;
	distance_AN 4.272002;
	distance_AB 2.5;
	distance_BN 5.656854;
	distance_AC 4.5;
};

object line_spacing {
	distance_AN 5.656854;
	name ls5006;
	distance_CN 4.272002;
	distance_BC 4.5;
	distance_AB 7.0;
	distance_AC 2.5;
	distance_BN 5.0;
};

object line_spacing {
	distance_AN 5.656854;
	name ls5007;
	distance_CN 5.0;
	distance_BC 0.0;
	distance_AB 0.0;
	distance_AC 7.0;
	distance_BN 0.0;
};

object line_spacing {
	distance_AN 5.656854;
	name ls5008;
	distance_CN 0.0;
	distance_BC 0.0;
	distance_AB 7.0;
	distance_AC 0.0;
	distance_BN 5.0;
};

object line_spacing {
	distance_AN 5.0;
	name ls5009;
	distance_CN 0.0;
	distance_BC 0.0;
	distance_AB 0.0;
	distance_AC 0.0;
	distance_BN 0.0;
};

object line_spacing {
	distance_AN 0.0;
	name ls50010;
	distance_CN 0.0;
	distance_BC 0.0;
	distance_AB 0.0;
	distance_AC 0.0;
	distance_BN 5.0;
};

object line_spacing {
	distance_AN 0.0;
	name ls50011;
	distance_CN 5.0;
	distance_BC 0.0;
	distance_AB 0.0;
	distance_AC 0.0;
	distance_BN 0.0;
};

object line_spacing {
	distance_AN 0.0;
	name ls50012;
	distance_CN 0.0;
	distance_BC 0.5;
	distance_AB 0.5;
	distance_AC 1.0;
	distance_BN 0.0;
};

object triplex_line_configuration {
	diameter 0.522;
	name lc1000;
	conductor_1 tlc1000;
	conductor_2 tlc1000;
	conductor_N tlc1000;
	insulation_thickness 0.08;
};

object line_configuration {
	name lc1001;
	spacing ls5001;
	conductor_N olc10002;
	conductor_A olc10001;
	conductor_C olc10001;
	conductor_B olc10001;
};

object line_configuration {
	name lc1002;
	spacing ls5002;
	conductor_N olc10002;
	conductor_A olc10001;
	conductor_C olc10001;
	conductor_B olc10001;
};

object line_configuration {
	name lc1003;
	spacing ls5003;
	conductor_N olc10002;
	conductor_A olc10001;
	conductor_C olc10001;
	conductor_B olc10001;
};

object line_configuration {
	name lc1004;
	spacing ls5004;
	conductor_N olc10002;
	conductor_A olc10001;
	conductor_C olc10001;
	conductor_B olc10001;
};

object line_configuration {
	name lc1005;
	spacing ls5005;
	conductor_N olc10002;
	conductor_A olc10001;
	conductor_C olc10001;
	conductor_B olc10001;
};

object line_configuration {
	name lc1006;
	spacing ls5006;
	conductor_N olc10002;
	conductor_A olc10001;
	conductor_C olc10001;
	conductor_B olc10001;
};

object line_configuration {
	name lc1007;
	spacing ls5007;
	conductor_N olc10002;
	conductor_A olc10001;
	conductor_C olc10001;
};

object line_configuration {
	name lc1008;
	spacing ls5008;
	conductor_N olc10002;
	conductor_A olc10001;
	conductor_B olc10001;
};

object line_configuration {
	conductor_A olc10009;
	conductor_N olc10009;
	spacing ls5009;
	name lc1009;
};

object line_configuration {
	conductor_N olc10009;
	spacing ls50010;
	name lc10010;
	conductor_B olc10009;
};

object line_configuration {
	conductor_C olc10009;
	conductor_N olc10009;
	spacing ls50011;
	name lc10011;
};

object line_configuration {
	name lc10012;
	spacing ls50012;
	conductor_A ulc10003;
	conductor_C ulc10003;
	conductor_B ulc10003;
};

object overhead_line {
	phases "BN";
	from l1;
	name linobj12;
	to l2;
	length 175;
	configuration lc10010;
	groupid Distribution_Line;
};

object overhead_line {
	phases "CN";
	from l1;
	name linobj13;
	to n3;
	length 250;
	configuration lc10011;
	groupid Distribution_Line;
};

object overhead_line {
	phases "ABCN";
	from l1;
	name linobj17;
	to l7;
	length 300;
	configuration lc1001;
	groupid Distribution_Line;
};

object overhead_line {
	phases "CN";
	from n3;
	name linobj34;
	to l4;
	length 200;
	configuration lc10011;
	groupid Distribution_Line;
};

object overhead_line {
	phases "CN";
	from n3;
	name linobj35;
	to l5;
	length 325;
	configuration lc10011;
	groupid Distribution_Line;
};

object overhead_line {
	phases "CN";
	from l5;
	name linobj56;
	to l6;
	length 250;
	configuration lc10011;
	groupid Distribution_Line;
};

object overhead_line {
	phases "ABCN";
	from l7;
	name linobj78;
	to n8;
	length 200;
	configuration lc1001;
	groupid Distribution_Line;
};

object overhead_line {
	phases "BN";
	from n8;
	name linobj812;
	to l12;
	length 225;
	configuration lc10010;
	groupid Distribution_Line;
};

object overhead_line {
	phases "AN";
	from n8;
	name linobj89;
	to l9;
	length 225;
	configuration lc1009;
	groupid Distribution_Line;
};

object overhead_line {
	phases "ABCN";
	from n8;
	name linobj813;
	to n13;
	length 300;
	configuration lc1001;
	groupid Distribution_Line;
};

object overhead_line {
	phases "AN";
	from n1401;
	name linobj140114;
	to n14;
	length 425;
	configuration lc1009;
	groupid Distribution_Line;
};

object overhead_line {
	phases "CN";
	from n13;
	name linobj1334;
	to l34;
	length 150;
	configuration lc10011;
	groupid Distribution_Line;
};

object overhead_line {
	phases "ABCN";
	from n13;
	name linobj1318;
	to n18;
	length 825;
	configuration lc1002;
	groupid Distribution_Line;
};

object overhead_line {
	phases "AN";
	from n14;
	name linobj1411;
	to l11;
	length 250;
	configuration lc1009;
	groupid Distribution_Line;
};

object overhead_line {
	phases "AN";
	from n14;
	name linobj1410;
	to l10;
	length 250;
	configuration lc1009;
	groupid Distribution_Line;
};

object overhead_line {
	phases "CN";
	from n15;
	name linobj1516;
	to l16;
	length 375;
	configuration lc10011;
	groupid Distribution_Line;
};

object overhead_line {
	phases "CN";
	from n15;
	name linobj1517;
	to l17;
	length 350;
	configuration lc10011;
	groupid Distribution_Line;
};

object overhead_line {
	phases "AN";
	from n18;
	name linobj1819;
	to l19;
	length 250;
	configuration lc1009;
	groupid Distribution_Line;
};

object overhead_line {
	phases "ABCN";
	from n18;
	name linobj1821;
	to n21;
	length 300;
	configuration lc1002;
	groupid Distribution_Line;
};

object overhead_line {
	phases "AN";
	from l19;
	name linobj1920;
	to l20;
	length 325;
	configuration lc1009;
	groupid Distribution_Line;
};

object overhead_line {
	phases "BN";
	from n21;
	name linobj2122;
	to l22;
	length 525;
	configuration lc10010;
	groupid Distribution_Line;
};

object overhead_line {
	phases "ABCN";
	from n21;
	name linobj2123;
	to n23;
	length 250;
	configuration lc1002;
	groupid Distribution_Line;
};

object overhead_line {
	phases "CN";
	from n23;
	name linobj2324;
	to l24;
	length 550;
	configuration lc10011;
	groupid Distribution_Line;
};

object overhead_line {
	phases "ABCN";
	from n23;
	name linobj2325;
	to n25;
	length 275;
	configuration lc1002;
	groupid Distribution_Line;
};

object overhead_line {
	phases "ACN";
	from n2601;
	name linobj260126;
	to n26;
	length 350;
	configuration lc1007;
	groupid Distribution_Line;
};

object overhead_line {
	phases "ABCN";
	from n25;
	name linobj2528;
	to l28;
	length 200;
	configuration lc1002;
	groupid Distribution_Line;
};

object overhead_line {
	phases "ACN";
	from n26;
	name linobj2627;
	to n27;
	length 275;
	configuration lc1007;
	groupid Distribution_Line;
};

object overhead_line {
	phases "CN";
	from n26;
	name linobj2631;
	to l31;
	length 225;
	configuration lc10011;
	groupid Distribution_Line;
};

object overhead_line {
	phases "AN";
	from n27;
	name linobj2733;
	to l33;
	length 500;
	configuration lc1009;
	groupid Distribution_Line;
};

object overhead_line {
	phases "ABCN";
	from l28;
	name linobj2829;
	to l29;
	length 300;
	configuration lc1002;
	groupid Distribution_Line;
};

object overhead_line {
	phases "ABCN";
	from l29;
	name linobj2930;
	to l30;
	length 350;
	configuration lc1002;
	groupid Distribution_Line;
};

object overhead_line {
	phases "ABCN";
	from l30;
	name linobj30250;
	to n250;
	length 200;
	configuration lc1002;
	groupid Distribution_Line;
};

object overhead_line {
	phases "CN";
	from l31;
	name linobj3132;
	to l32;
	length 300;
	configuration lc10011;
	groupid Distribution_Line;
};

object overhead_line {
	phases "CN";
	from l34;
	name linobj3415;
	to n15;
	length 100;
	configuration lc10011;
	groupid Distribution_Line;
};

object overhead_line {
	phases "ABN";
	from l35;
	name linobj3536;
	to n36;
	length 650;
	configuration lc1008;
	groupid Distribution_Line;
};

object overhead_line {
	phases "ABCN";
	from l35;
	name linobj3540;
	to n40;
	length 250;
	configuration lc1001;
	groupid Distribution_Line;
};

object overhead_line {
	phases "AN";
	from n36;
	name linobj3637;
	to l37;
	length 300;
	configuration lc1009;
	groupid Distribution_Line;
};

object overhead_line {
	phases "BN";
	from n36;
	name linobj3638;
	to l38;
	length 250;
	configuration lc10010;
	groupid Distribution_Line;
};

object overhead_line {
	phases "BN";
	from l38;
	name linobj3839;
	to l39;
	length 325;
	configuration lc10010;
	groupid Distribution_Line;
};

object overhead_line {
	phases "CN";
	from n40;
	name linobj4041;
	to l41;
	length 325;
	configuration lc10011;
	groupid Distribution_Line;
};

object overhead_line {
	phases "ABCN";
	from n40;
	name linobj4042;
	to l42;
	length 250;
	configuration lc1001;
	groupid Distribution_Line;
};

object overhead_line {
	phases "BN";
	from l42;
	name linobj4243;
	to l43;
	length 500;
	configuration lc10010;
	groupid Distribution_Line;
};

object overhead_line {
	phases "ABCN";
	from l42;
	name linobj4244;
	to n44;
	length 200;
	configuration lc1001;
	groupid Distribution_Line;
};

object overhead_line {
	phases "AN";
	from n44;
	name linobj4445;
	to l45;
	length 200;
	configuration lc1009;
	groupid Distribution_Line;
};

object overhead_line {
	phases "ABCN";
	from n44;
	name linobj4447;
	to l47;
	length 250;
	configuration lc1001;
	groupid Distribution_Line;
};

object overhead_line {
	phases "AN";
	from l45;
	name linobj4546;
	to l46;
	length 300;
	configuration lc1009;
	groupid Distribution_Line;
};

object overhead_line {
	phases "ABCN";
	from l47;
	name linobj4748;
	to l48;
	length 150;
	configuration lc1004;
	groupid Distribution_Line;
};

object overhead_line {
	phases "ABCN";
	from l47;
	name linobj4749;
	to l49;
	length 250;
	configuration lc1004;
	groupid Distribution_Line;
};

object overhead_line {
	phases "ABCN";
	from l49;
	name linobj4950;
	to l50;
	length 250;
	configuration lc1004;
	groupid Distribution_Line;
};

object overhead_line {
	phases "ABCN";
	from l50;
	name linobj5051;
	to l51;
	length 250;
	configuration lc1004;
	groupid Distribution_Line;
};

object overhead_line {
	phases "ABCN";
	from l51;
	name linobj51151;
	to n151;
	length 700;
	configuration lc1004;
	groupid Distribution_Line;
};

object overhead_line {
	phases "ABCN";
	from l52;
	name linobj5253;
	to l53;
	length 200;
	configuration lc1001;
	groupid Distribution_Line;
};

object overhead_line {
	phases "ABCN";
	from l53;
	name linobj5354;
	to n54;
	length 125;
	configuration lc1001;
	groupid Distribution_Line;
};

object overhead_line {
	phases "ABCN";
	from n54;
	name linobj5455;
	to l55;
	length 275;
	configuration lc1001;
	groupid Distribution_Line;
};

object overhead_line {
	phases "ABCN";
	from n54;
	name linobj5457;
	to n57;
	length 350;
	configuration lc1003;
	groupid Distribution_Line;
};

object overhead_line {
	phases "ABCN";
	from l55;
	name linobj5556;
	to l56;
	length 275;
	configuration lc1001;
	groupid Distribution_Line;
};

object overhead_line {
	phases "BN";
	from n57;
	name linobj5758;
	to l58;
	length 250;
	configuration lc10010;
	groupid Distribution_Line;
};

object overhead_line {
	phases "ABCN";
	from n57;
	name linobj5760;
	to l60;
	length 750;
	configuration lc1003;
	groupid Distribution_Line;
};

object overhead_line {
	phases "BN";
	from l58;
	name linobj5859;
	to l59;
	length 250;
	configuration lc10010;
	groupid Distribution_Line;
};

object overhead_line {
	phases "ABCN";
	from l60;
	name linobj6061;
	to n61;
	length 550;
	configuration lc1005;
	groupid Distribution_Line;
};

object underground_line {
	phases "ABC";
	from l60;
	name linobj6062;
	to l62;
	length 250;
	configuration lc10012;
	groupid Distribution_Line;
};

object underground_line {
	phases "ABC";
	from l62;
	name linobj6263;
	to l63;
	length 175;
	configuration lc10012;
	groupid Distribution_Line;
};

object underground_line {
	phases "ABC";
	from l63;
	name linobj6364;
	to l64;
	length 350;
	configuration lc10012;
	groupid Distribution_Line;
};

object underground_line {
	phases "ABC";
	from l64;
	name linobj6465;
	to l65;
	length 425;
	configuration lc10012;
	groupid Distribution_Line;
};

object underground_line {
	phases "ABC";
	from l65;
	name linobj6566;
	to l66;
	length 325;
	configuration lc10012;
	groupid Distribution_Line;
};

object overhead_line {
	phases "AN";
	from n67;
	name linobj6768;
	to l68;
	length 200;
	configuration lc1009;
	groupid Distribution_Line;
};

object overhead_line {
	phases "ABCN";
	from n67;
	name linobj6772;
	to n72;
	length 275;
	configuration lc1003;
	groupid Distribution_Line;
};

object overhead_line {
	phases "ABCN";
	from n67;
	name linobj6797;
	to n97;
	length 250;
	configuration lc1003;
	groupid Distribution_Line;
};

object overhead_line {
	phases "AN";
	from l68;
	name linobj6869;
	to l69;
	length 275;
	configuration lc1009;
	groupid Distribution_Line;
};

object overhead_line {
	phases "AN";
	from l69;
	name linobj6970;
	to l70;
	length 325;
	configuration lc1009;
	groupid Distribution_Line;
};

object overhead_line {
	phases "AN";
	from l70;
	name linobj7071;
	to l71;
	length 275;
	configuration lc1009;
	groupid Distribution_Line;
};

object overhead_line {
	phases "CN";
	from n72;
	name linobj7273;
	to l73;
	length 275;
	configuration lc10011;
	groupid Distribution_Line;
};

object overhead_line {
	phases "ABCN";
	from n72;
	name linobj7276;
	to l76;
	length 200;
	configuration lc1003;
	groupid Distribution_Line;
};

object overhead_line {
	phases "CN";
	from l73;
	name linobj7374;
	to l74;
	length 350;
	configuration lc10011;
	groupid Distribution_Line;
};

object overhead_line {
	phases "CN";
	from l74;
	name linobj7475;
	to l75;
	length 400;
	configuration lc10011;
	groupid Distribution_Line;
};

object overhead_line {
	phases "ABCN";
	from l76;
	name linobj7677;
	to l77;
	length 400;
	configuration lc1006;
	groupid Distribution_Line;
};

object overhead_line {
	phases "ABCN";
	from l76;
	name linobj7686;
	to l86;
	length 700;
	configuration lc1003;
	groupid Distribution_Line;
};

object overhead_line {
	phases "ABCN";
	from l77;
	name linobj7778;
	to n78;
	length 100;
	configuration lc1006;
	groupid Distribution_Line;
};

object overhead_line {
	phases "ABCN";
	from n78;
	name linobj7879;
	to l79;
	length 225;
	configuration lc1006;
	groupid Distribution_Line;
};

object overhead_line {
	phases "ABCN";
	from n78;
	name linobj7880;
	to l80;
	length 475;
	configuration lc1006;
	groupid Distribution_Line;
};

object overhead_line {
	phases "ABCN";
	from l80;
	name linobj8081;
	to n81;
	length 475;
	configuration lc1006;
	groupid Distribution_Line;
};

object overhead_line {
	phases "ABCN";
	from n81;
	name linobj8182;
	to l82;
	length 250;
	configuration lc1006;
	groupid Distribution_Line;
};

object overhead_line {
	phases "CN";
	from n81;
	name linobj8184;
	to l84;
	length 675;
	configuration lc10011;
	groupid Distribution_Line;
};

object overhead_line {
	phases "ABCN";
	from l82;
	name linobj8283;
	to l83;
	length 250;
	configuration lc1006;
	groupid Distribution_Line;
};

object overhead_line {
	phases "CN";
	from l84;
	name linobj8485;
	to l85;
	length 475;
	configuration lc10011;
	groupid Distribution_Line;
};

object overhead_line {
	phases "ABCN";
	from l86;
	name linobj8687;
	to l87;
	length 450;
	configuration lc1006;
	groupid Distribution_Line;
};

object overhead_line {
	phases "AN";
	from l87;
	name linobj8788;
	to l88;
	length 175;
	configuration lc1009;
	groupid Distribution_Line;
};

object overhead_line {
	phases "ABCN";
	from l87;
	name linobj8789;
	to n89;
	length 275;
	configuration lc1006;
	groupid Distribution_Line;
};

object overhead_line {
	phases "BN";
	from n89;
	name linobj8990;
	to l90;
	length 225;
	configuration lc10010;
	groupid Distribution_Line;
};

object overhead_line {
	phases "ABCN";
	from n89;
	name linobj8991;
	to n91;
	length 225;
	configuration lc1006;
	groupid Distribution_Line;
};

object overhead_line {
	phases "CN";
	from n91;
	name linobj9192;
	to l92;
	length 300;
	configuration lc10011;
	groupid Distribution_Line;
};

object overhead_line {
	phases "ABCN";
	from n91;
	name linobj9193;
	to n93;
	length 225;
	configuration lc1006;
	groupid Distribution_Line;
};

object overhead_line {
	phases "AN";
	from n93;
	name linobj9394;
	to l94;
	length 275;
	configuration lc1009;
	groupid Distribution_Line;
};

object overhead_line {
	phases "ABCN";
	from n93;
	name linobj9395;
	to l95;
	length 300;
	configuration lc1006;
	groupid Distribution_Line;
};

object overhead_line {
	phases "BN";
	from l95;
	name linobj9596;
	to l96;
	length 200;
	configuration lc10010;
	groupid Distribution_Line;
};

object overhead_line {
	phases "ABCN";
	from n97;
	name linobj9798;
	to l98;
	length 275;
	configuration lc1003;
	groupid Distribution_Line;
};

object overhead_line {
	phases "ABCN";
	from l98;
	name linobj9899;
	to l99;
	length 550;
	configuration lc1003;
	groupid Distribution_Line;
};

object overhead_line {
	phases "ABCN";
	from l99;
	name linobj99100;
	to l100;
	length 300;
	configuration lc1003;
	groupid Distribution_Line;
};

object overhead_line {
	phases "ABCN";
	from l100;
	name linobj100450;
	to n450;
	length 800;
	configuration lc1003;
	groupid Distribution_Line;
};

object overhead_line {
	phases "CN";
	from n101;
	name linobj101102;
	to l102;
	length 225;
	configuration lc10011;
	groupid Distribution_Line;
};

object overhead_line {
	phases "ABCN";
	from n101;
	name linobj101105;
	to n105;
	length 275;
	configuration lc1003;
	groupid Distribution_Line;
};

object overhead_line {
	phases "CN";
	from l102;
	name linobj102103;
	to l103;
	length 325;
	configuration lc10011;
	groupid Distribution_Line;
};

object overhead_line {
	phases "CN";
	from l103;
	name linobj103104;
	to l104;
	length 700;
	configuration lc10011;
	groupid Distribution_Line;
};

object overhead_line {
	phases "BN";
	from n105;
	name linobj105106;
	to l106;
	length 225;
	configuration lc10010;
	groupid Distribution_Line;
};

object overhead_line {
	phases "ABCN";
	from n105;
	name linobj105108;
	to n108;
	length 325;
	configuration lc1003;
	groupid Distribution_Line;
};

object overhead_line {
	phases "BN";
	from l106;
	name linobj106107;
	to l107;
	length 575;
	configuration lc10010;
	groupid Distribution_Line;
};

object overhead_line {
	phases "AN";
	from n108;
	name linobj108109;
	to l109;
	length 450;
	configuration lc1009;
	groupid Distribution_Line;
};

object overhead_line {
	phases "ABCN";
	from n108;
	name linobj108300;
	to n300;
	length 1000;
	configuration lc1003;
	groupid Distribution_Line;
};

object overhead_line {
	phases "AN";
	from l109;
	name linobj109110;
	to n110;
	length 300;
	configuration lc1009;
	groupid Distribution_Line;
};

object overhead_line {
	phases "AN";
	from n110;
	name linobj110111;
	to l111;
	length 575;
	configuration lc1009;
	groupid Distribution_Line;
};

object overhead_line {
	phases "AN";
	from n110;
	name linobj110112;
	to l112;
	length 125;
	configuration lc1009;
	groupid Distribution_Line;
};

object overhead_line {
	phases "AN";
	from l112;
	name linobj112113;
	to l113;
	length 525;
	configuration lc1009;
	groupid Distribution_Line;
};

object overhead_line {
	phases "AN";
	from l113;
	name linobj113114;
	to l114;
	length 325;
	configuration lc1009;
	groupid Distribution_Line;
};

object overhead_line {
	phases "ABCN";
	from n135;
	name linobj13535;
	to l35;
	length 375;
	configuration lc1004;
	groupid Distribution_Line;
};

object overhead_line {
	phases "ABCN";
	from n149;
	name linobj1491;
	to l1;
	length 400;
	configuration lc1001;
	groupid Distribution_Line;
};

object overhead_line {
	phases "ABCN";
	from n152;
	name linobj15252;
	to l52;
	length 400;
	configuration lc1001;
	groupid Distribution_Line;
};

object overhead_line {
	phases "ABCN";
	from n6701;
	name linobj670167;
	to n67;
	length 350;
	configuration lc1006;
	groupid Distribution_Line;
};

object overhead_line {
	phases "ABCN";
	from n197;
	name linobj197101;
	to n101;
	length 250;
	configuration lc1003;
	groupid Distribution_Line;
};

object node {
	phases "CN";
	name n3;
	voltage_B -1200.8886-2080.000j;
	voltage_C -1200.8886+2080.000j;
	voltage_A 2401.7771;
	nominal_voltage 2401.7771;
};

object node {
	phases "ABCN";
	name n8;
	voltage_B -1200.8886-2080.000j;
	voltage_C -1200.8886+2080.000j;
	voltage_A 2401.7771;
	nominal_voltage 2401.7771;
};

object node {
	phases "ABCN";
	name n13;
	voltage_B -1200.8886-2080.000j;
	voltage_C -1200.8886+2080.000j;
	voltage_A 2401.7771;
	nominal_voltage 2401.7771;
};

object node {
	phases "AN";
	name n14;
	voltage_B -1200.8886-2080.000j;
	voltage_C -1200.8886+2080.000j;
	voltage_A 2401.7771;
	nominal_voltage 2401.7771;
};

object node {
	phases "AN";
	name n1401;
	voltage_B -1200.8886-2080.000j;
	voltage_C -1200.8886+2080.000j;
	voltage_A 2401.7771;
	nominal_voltage 2401.7771;
};

object node {
	phases "CN";
	name n15;
	voltage_B -1200.8886-2080.000j;
	voltage_C -1200.8886+2080.000j;
	voltage_A 2401.7771;
	nominal_voltage 2401.7771;
};

object node {
	phases "ABCN";
	name n18;
	voltage_B -1200.8886-2080.000j;
	voltage_C -1200.8886+2080.000j;
	voltage_A 2401.7771;
	nominal_voltage 2401.7771;
};

object node {
	phases "ABCN";
	name n21;
	voltage_B -1200.8886-2080.000j;
	voltage_C -1200.8886+2080.000j;
	voltage_A 2401.7771;
	nominal_voltage 2401.7771;
};

object node {
	phases "ABCN";
	name n23;
	voltage_B -1200.8886-2080.000j;
	voltage_C -1200.8886+2080.000j;
	voltage_A 2401.7771;
	nominal_voltage 2401.7771;
};

object node {
	phases "ABCN";
	name n25;
	voltage_B -1200.8886-2080.000j;
	voltage_C -1200.8886+2080.000j;
	voltage_A 2401.7771;
	nominal_voltage 2401.7771;
};

object node {
	phases "ACN";
	name n26;
	voltage_B -1200.8886-2080.000j;
	voltage_C -1200.8886+2080.000j;
	voltage_A 2401.7771;
	nominal_voltage 2401.7771;
};

object node {
	phases "ACN";
	name n2601;
	voltage_B -1200.8886-2080.000j;
	voltage_C -1200.8886+2080.000j;
	voltage_A 2401.7771;
	nominal_voltage 2401.7771;
};

object node {
	phases "ACN";
	name n27;
	voltage_B -1200.8886-2080.000j;
	voltage_C -1200.8886+2080.000j;
	voltage_A 2401.7771;
	nominal_voltage 2401.7771;
};

object node {
	phases "ABN";
	name n36;
	voltage_B -1200.8886-2080.000j;
	voltage_C -1200.8886+2080.000j;
	voltage_A 2401.7771;
	nominal_voltage 2401.7771;
};

object node {
	phases "ABCN";
	name n40;
	voltage_B -1200.8886-2080.000j;
	voltage_C -1200.8886+2080.000j;
	voltage_A 2401.7771;
	nominal_voltage 2401.7771;
};

object node {
	phases "ABCN";
	name n44;
	voltage_B -1200.8886-2080.000j;
	voltage_C -1200.8886+2080.000j;
	voltage_A 2401.7771;
	nominal_voltage 2401.7771;
};

object node {
	phases "ABCN";
	name n54;
	voltage_B -1200.8886-2080.000j;
	voltage_C -1200.8886+2080.000j;
	voltage_A 2401.7771;
	nominal_voltage 2401.7771;
};

object node {
	phases "ABCN";
	name n57;
	voltage_B -1200.8886-2080.000j;
	voltage_C -1200.8886+2080.000j;
	voltage_A 2401.7771;
	nominal_voltage 2401.7771;
};

object node {
	phases "ABCN";
	name n61;
	voltage_B -1200.8886-2080.000j;
	voltage_C -1200.8886+2080.000j;
	voltage_A 2401.7771;
	nominal_voltage 2401.7771;
};

object node {
	phases "ABCN";
	name n67;
	voltage_B -1200.8886-2080.000j;
	voltage_C -1200.8886+2080.000j;
	voltage_A 2401.7771;
	nominal_voltage 2401.7771;
};

object node {
	phases "ABCN";
	name n6701;
	voltage_B -1200.8886-2080.000j;
	voltage_C -1200.8886+2080.000j;
	voltage_A 2401.7771;
	nominal_voltage 2401.7771;
};

object node {
	phases "ABCN";
	name n72;
	voltage_B -1200.8886-2080.000j;
	voltage_C -1200.8886+2080.000j;
	voltage_A 2401.7771;
	nominal_voltage 2401.7771;
};

object node {
	phases "ABCN";
	name n78;
	voltage_B -1200.8886-2080.000j;
	voltage_C -1200.8886+2080.000j;
	voltage_A 2401.7771;
	nominal_voltage 2401.7771;
};

object node {
	phases "ABCN";
	name n81;
	voltage_B -1200.8886-2080.000j;
	voltage_C -1200.8886+2080.000j;
	voltage_A 2401.7771;
	nominal_voltage 2401.7771;
};

object node {
	phases "ABCN";
	name n89;
	voltage_B -1200.8886-2080.000j;
	voltage_C -1200.8886+2080.000j;
	voltage_A 2401.7771;
	nominal_voltage 2401.7771;
};

object node {
	phases "ABCN";
	name n91;
	voltage_B -1200.8886-2080.000j;
	voltage_C -1200.8886+2080.000j;
	voltage_A 2401.7771;
	nominal_voltage 2401.7771;
};

object node {
	phases "ABCN";
	name n93;
	voltage_B -1200.8886-2080.000j;
	voltage_C -1200.8886+2080.000j;
	voltage_A 2401.7771;
	nominal_voltage 2401.7771;
};

object node {
	phases "ABCN";
	name n97;
	voltage_B -1200.8886-2080.000j;
	voltage_C -1200.8886+2080.000j;
	voltage_A 2401.7771;
	nominal_voltage 2401.7771;
};

object node {
	phases "ABCN";
	name n101;
	voltage_B -1200.8886-2080.000j;
	voltage_C -1200.8886+2080.000j;
	voltage_A 2401.7771;
	nominal_voltage 2401.7771;
};

object node {
	phases "ABCN";
	name n105;
	voltage_B -1200.8886-2080.000j;
	voltage_C -1200.8886+2080.000j;
	voltage_A 2401.7771;
	nominal_voltage 2401.7771;
};

object node {
	phases "ABCN";
	name n108;
	voltage_B -1200.8886-2080.000j;
	voltage_C -1200.8886+2080.000j;
	voltage_A 2401.7771;
	nominal_voltage 2401.7771;
};

object node {
	phases "AN";
	name n110;
	voltage_B -1200.8886-2080.000j;
	voltage_C -1200.8886+2080.000j;
	voltage_A 2401.7771;
	nominal_voltage 2401.7771;
};

object node {
	phases "ABCN";
	name n135;
	voltage_B -1200.8886-2080.000j;
	voltage_C -1200.8886+2080.000j;
	voltage_A 2401.7771;
	nominal_voltage 2401.7771;
};

object node {
	phases "ABCN";
	name n149;
	voltage_B -1200.8886-2080.000j;
	voltage_C -1200.8886+2080.000j;
	voltage_A 2401.7771;
	nominal_voltage 2401.7771;
};

object node {
	phases "ABCN";
	name n1491;
	voltage_B -1200.8886-2080.000j;
	voltage_C -1200.8886+2080.000j;
	voltage_A 2401.7771;
	nominal_voltage 2401.7771;
};

object meter {
	phases "ABCN";
	name n150;
	voltage_B -1200.8886-2080.000j;
	voltage_C -1200.8886+2080.000j;
	voltage_A 2401.7771;
	nominal_voltage 2401.7771;
};

object node {
	phases "ABCN";
	name n151;
	voltage_B -1200.8886-2080.000j;
	voltage_C -1200.8886+2080.000j;
	voltage_A 2401.7771;
	nominal_voltage 2401.7771;
};

object node {
	phases "ABCN";
	name n152;
	voltage_B -1200.8886-2080.000j;
	voltage_C -1200.8886+2080.000j;
	voltage_A 2401.7771;
	nominal_voltage 2401.7771;
};

object node {
	phases "ABCN";
	name n160;
	voltage_B -1200.8886-2080.000j;
	voltage_C -1200.8886+2080.000j;
	voltage_A 2401.7771;
	nominal_voltage 2401.7771;
};

object node {
	phases "ABCN";
	name n195;
	voltage_B -1200.8886-2080.000j;
	voltage_C -1200.8886+2080.000j;
	voltage_A 2401.7771;
	nominal_voltage 2401.7771;
};

object node {
	phases "ABCN";
	name n197;
	voltage_B -1200.8886-2080.000j;
	voltage_C -1200.8886+2080.000j;
	voltage_A 2401.7771;
	nominal_voltage 2401.7771;
};

object node {
	phases "ABCN";
	name n250;
	voltage_B -1200.8886-2080.000j;
	voltage_C -1200.8886+2080.000j;
	voltage_A 2401.7771;
	nominal_voltage 2401.7771;
};

object node {
	phases "ABCN";
	name n251;
	voltage_B -1200.8886-2080.000j;
	voltage_C -1200.8886+2080.000j;
	voltage_A 2401.7771;
	nominal_voltage 2401.7771;
};

object node {
	phases "ABCN";
	name n300;
	voltage_B -1200.8886-2080.000j;
	voltage_C -1200.8886+2080.000j;
	voltage_A 2401.7771;
	nominal_voltage 2401.7771;
};

object node {
	phases "ABCN";
	name n350;
	voltage_B -1200.8886-2080.000j;
	voltage_C -1200.8886+2080.000j;
	voltage_A 2401.7771;
	nominal_voltage 2401.7771;
};

object node {
	phases "ABCN";
	name n450;
	voltage_B -1200.8886-2080.000j;
	voltage_C -1200.8886+2080.000j;
	voltage_A 2401.7771;
	nominal_voltage 2401.7771;
};

object node {
	phases "ABCN";
	name n451;
	voltage_B -1200.8886-2080.000j;
	voltage_C -1200.8886+2080.000j;
	voltage_A 2401.7771;
	nominal_voltage 2401.7771;
};

object node {
	phases "ABCN";
	name n610;
	voltage_B -240.000-415.6922j;
	voltage_C -240.000+415.6922j;
	voltage_A 480.000+0j;
	nominal_voltage 480.000;
};

object node {
	phases "ABCN";
	name n611;
	voltage_B -1200.8886-2080.000j;
	voltage_C -1200.8886+2080.000j;
	voltage_A 2401.7771;
	nominal_voltage 2401.7771;
};

object load {
	phases "ABCN";
	name l1;
	voltage_B -1200.8886-2080.000j;
	voltage_C -1200.8886+2080.000j;
	voltage_A 2401.7771;
	nominal_voltage 2401.7771;
};

object triplex_node {
	voltage_2 120.0;
	phases AS;
	voltage_1 120.0;
	name l1_tn;
	parent l1_tm;
	nominal_voltage 120.0;
	voltage_N 0;
};

object transformer {
	phases AS;
	from l1;
	name triplex_l1;
	to l1_tpn;
	configuration tc5600;
	groupid Distribution_Trans;
};

object triplex_meter {
	voltage_2 120.0;
	phases AS;
	voltage_1 120.0;
	name l1_tm;
	nominal_voltage 120.0;
	voltage_N 0;
};

object triplex_node {
	voltage_2 120.0;
	phases AS;
	voltage_1 120.0;
	name l1_tpn;
	nominal_voltage 120.0;
	voltage_N 0;
};

object triplex_line {
	phases AS;
	from l1_tpn;
	name l1_tpn_tm;
	to l1_tm;
	length 26.4;
	configuration lc1000;
	groupid Triplex_Line;
};

object load {
	phases "BN";
	name l2;
	voltage_B -1200.8886-2080.000j;
	voltage_C -1200.8886+2080.000j;
	voltage_A 2401.7771;
	nominal_voltage 2401.7771;
};

object triplex_node {
	voltage_2 120.0;
	phases BS;
	voltage_1 120.0;
	name l2_tn;
	parent l2_tm;
	nominal_voltage 120.0;
	voltage_N 0;
};

object transformer {
	phases BS;
	from l2;
	name triplex_l2;
	to l2_tpn;
	configuration tc5601;
	groupid Distribution_Trans;
};

object triplex_meter {
	voltage_2 120.0;
	phases BS;
	voltage_1 120.0;
	name l2_tm;
	nominal_voltage 120.0;
	voltage_N 0;
};

object triplex_node {
	voltage_2 120.0;
	phases BS;
	voltage_1 120.0;
	name l2_tpn;
	nominal_voltage 120.0;
	voltage_N 0;
};

object triplex_line {
	phases BS;
	from l2_tpn;
	name l2_tpn_tm;
	to l2_tm;
	length 29.7;
	configuration lc1000;
	groupid Triplex_Line;
};

object load {
	phases "CN";
	name l4;
	voltage_B -1200.8886-2080.000j;
	voltage_C -1200.8886+2080.000j;
	voltage_A 2401.7771;
	nominal_voltage 2401.7771;
};

object triplex_node {
	voltage_2 120.0;
	phases CS;
	voltage_1 120.0;
	name l4_tn;
	parent l4_tm;
	nominal_voltage 120.0;
	voltage_N 0;
};

object transformer {
	phases CS;
	from l4;
	name triplex_l4;
	to l4_tpn;
	configuration tc5602;
	groupid Distribution_Trans;
};

object triplex_meter {
	voltage_2 120.0;
	phases CS;
	voltage_1 120.0;
	name l4_tm;
	nominal_voltage 120.0;
	voltage_N 0;
};

object triplex_node {
	voltage_2 120.0;
	phases CS;
	voltage_1 120.0;
	name l4_tpn;
	nominal_voltage 120.0;
	voltage_N 0;
};

object triplex_line {
	phases CS;
	from l4_tpn;
	name l4_tpn_tm;
	to l4_tm;
	length 29.7;
	configuration lc1000;
	groupid Triplex_Line;
};

object load {
	phases "CN";
	name l5;
	voltage_B -1200.8886-2080.000j;
	voltage_C -1200.8886+2080.000j;
	voltage_A 2401.7771;
	nominal_voltage 2401.7771;
};

object triplex_node {
	voltage_2 120.0;
	phases CS;
	voltage_1 120.0;
	name l5_tn;
	parent l5_tm;
	nominal_voltage 120.0;
	voltage_N 0;
};

object transformer {
	phases CS;
	from l5;
	name triplex_l5;
	to l5_tpn;
	configuration tc5602;
	groupid Distribution_Trans;
};

object triplex_meter {
	voltage_2 120.0;
	phases CS;
	voltage_1 120.0;
	name l5_tm;
	nominal_voltage 120.0;
	voltage_N 0;
};

object triplex_node {
	voltage_2 120.0;
	phases CS;
	voltage_1 120.0;
	name l5_tpn;
	nominal_voltage 120.0;
	voltage_N 0;
};

object triplex_line {
	phases CS;
	from l5_tpn;
	name l5_tpn_tm;
	to l5_tm;
	length 30.2;
	configuration lc1000;
	groupid Triplex_Line;
};

object load {
	phases "CN";
	name l6;
	voltage_B -1200.8886-2080.000j;
	voltage_C -1200.8886+2080.000j;
	voltage_A 2401.7771;
	nominal_voltage 2401.7771;
};

object triplex_node {
	voltage_2 120.0;
	phases CS;
	voltage_1 120.0;
	name l6_tn;
	parent l6_tm;
	nominal_voltage 120.0;
	voltage_N 0;
};

object transformer {
	phases CS;
	from l6;
	name triplex_l6;
	to l6_tpn;
	configuration tc5602;
	groupid Distribution_Trans;
};

object triplex_meter {
	voltage_2 120.0;
	phases CS;
	voltage_1 120.0;
	name l6_tm;
	nominal_voltage 120.0;
	voltage_N 0;
};

object triplex_node {
	voltage_2 120.0;
	phases CS;
	voltage_1 120.0;
	name l6_tpn;
	nominal_voltage 120.0;
	voltage_N 0;
};

object triplex_line {
	phases CS;
	from l6_tpn;
	name l6_tpn_tm;
	to l6_tm;
	length 29.5;
	configuration lc1000;
	groupid Triplex_Line;
};

object load {
	phases "ABCN";
	name l7;
	voltage_B -1200.8886-2080.000j;
	voltage_C -1200.8886+2080.000j;
	voltage_A 2401.7771;
	nominal_voltage 2401.7771;
};

object triplex_node {
	voltage_2 120.0;
	phases AS;
	voltage_1 120.0;
	name l7_tn;
	parent l7_tm;
	nominal_voltage 120.0;
	voltage_N 0;
};

object transformer {
	phases AS;
	from l7;
	name triplex_l7;
	to l7_tpn;
	configuration tc5600;
	groupid Distribution_Trans;
};

object triplex_meter {
	voltage_2 120.0;
	phases AS;
	voltage_1 120.0;
	name l7_tm;
	nominal_voltage 120.0;
	voltage_N 0;
};

object triplex_node {
	voltage_2 120.0;
	phases AS;
	voltage_1 120.0;
	name l7_tpn;
	nominal_voltage 120.0;
	voltage_N 0;
};

object triplex_line {
	phases AS;
	from l7_tpn;
	name l7_tpn_tm;
	to l7_tm;
	length 34.2;
	configuration lc1000;
	groupid Triplex_Line;
};

object load {
	phases "AN";
	name l9;
	voltage_B -1200.8886-2080.000j;
	voltage_C -1200.8886+2080.000j;
	voltage_A 2401.7771;
	nominal_voltage 2401.7771;
};

object triplex_node {
	voltage_2 120.0;
	phases AS;
	voltage_1 120.0;
	name l9_tn;
	parent l9_tm;
	nominal_voltage 120.0;
	voltage_N 0;
};

object transformer {
	phases AS;
	from l9;
	name triplex_l9;
	to l9_tpn;
	configuration tc5600;
	groupid Distribution_Trans;
};

object triplex_meter {
	voltage_2 120.0;
	phases AS;
	voltage_1 120.0;
	name l9_tm;
	nominal_voltage 120.0;
	voltage_N 0;
};

object triplex_node {
	voltage_2 120.0;
	phases AS;
	voltage_1 120.0;
	name l9_tpn;
	nominal_voltage 120.0;
	voltage_N 0;
};

object triplex_line {
	phases AS;
	from l9_tpn;
	name l9_tpn_tm;
	to l9_tm;
	length 23.1;
	configuration lc1000;
	groupid Triplex_Line;
};

object load {
	phases "AN";
	name l10;
	voltage_B -1200.8886-2080.000j;
	voltage_C -1200.8886+2080.000j;
	voltage_A 2401.7771;
	nominal_voltage 2401.7771;
};

object triplex_node {
	voltage_2 120.0;
	phases AS;
	voltage_1 120.0;
	name l10_tn;
	parent l10_tm;
	nominal_voltage 120.0;
	voltage_N 0;
};

object transformer {
	phases AS;
	from l10;
	name triplex_l10;
	to l10_tpn;
	configuration tc5600;
	groupid Distribution_Trans;
};

object triplex_meter {
	voltage_2 120.0;
	phases AS;
	voltage_1 120.0;
	name l10_tm;
	nominal_voltage 120.0;
	voltage_N 0;
};

object triplex_node {
	voltage_2 120.0;
	phases AS;
	voltage_1 120.0;
	name l10_tpn;
	nominal_voltage 120.0;
	voltage_N 0;
};

object triplex_line {
	phases AS;
	from l10_tpn;
	name l10_tpn_tm;
	to l10_tm;
	length 30.6;
	configuration lc1000;
	groupid Triplex_Line;
};

object load {
	phases "AN";
	name l11;
	voltage_B -1200.8886-2080.000j;
	voltage_C -1200.8886+2080.000j;
	voltage_A 2401.7771;
	nominal_voltage 2401.7771;
};

object triplex_node {
	voltage_2 120.0;
	phases AS;
	voltage_1 120.0;
	name l11_tn;
	parent l11_tm;
	nominal_voltage 120.0;
	voltage_N 0;
};

object transformer {
	phases AS;
	from l11;
	name triplex_l11;
	to l11_tpn;
	configuration tc5600;
	groupid Distribution_Trans;
};

object triplex_meter {
	voltage_2 120.0;
	phases AS;
	voltage_1 120.0;
	name l11_tm;
	nominal_voltage 120.0;
	voltage_N 0;
};

object triplex_node {
	voltage_2 120.0;
	phases AS;
	voltage_1 120.0;
	name l11_tpn;
	nominal_voltage 120.0;
	voltage_N 0;
};

object triplex_line {
	phases AS;
	from l11_tpn;
	name l11_tpn_tm;
	to l11_tm;
	length 23.5;
	configuration lc1000;
	groupid Triplex_Line;
};

object load {
	phases "BN";
	name l12;
	voltage_B -1200.8886-2080.000j;
	voltage_C -1200.8886+2080.000j;
	voltage_A 2401.7771;
	nominal_voltage 2401.7771;
};

object triplex_node {
	voltage_2 120.0;
	phases BS;
	voltage_1 120.0;
	name l12_tn;
	parent l12_tm;
	nominal_voltage 120.0;
	voltage_N 0;
};

object transformer {
	phases BS;
	from l12;
	name triplex_l12;
	to l12_tpn;
	configuration tc5601;
	groupid Distribution_Trans;
};

object triplex_meter {
	voltage_2 120.0;
	phases BS;
	voltage_1 120.0;
	name l12_tm;
	nominal_voltage 120.0;
	voltage_N 0;
};

object triplex_node {
	voltage_2 120.0;
	phases BS;
	voltage_1 120.0;
	name l12_tpn;
	nominal_voltage 120.0;
	voltage_N 0;
};

object triplex_line {
	phases BS;
	from l12_tpn;
	name l12_tpn_tm;
	to l12_tm;
	length 21.8;
	configuration lc1000;
	groupid Triplex_Line;
};

object load {
	phases "CN";
	name l16;
	voltage_B -1200.8886-2080.000j;
	voltage_C -1200.8886+2080.000j;
	voltage_A 2401.7771;
	nominal_voltage 2401.7771;
};

object triplex_node {
	voltage_2 120.0;
	phases CS;
	voltage_1 120.0;
	name l16_tn;
	parent l16_tm;
	nominal_voltage 120.0;
	voltage_N 0;
};

object transformer {
	phases CS;
	from l16;
	name triplex_l16;
	to l16_tpn;
	configuration tc5602;
	groupid Distribution_Trans;
};

object triplex_meter {
	voltage_2 120.0;
	phases CS;
	voltage_1 120.0;
	name l16_tm;
	nominal_voltage 120.0;
	voltage_N 0;
};

object triplex_node {
	voltage_2 120.0;
	phases CS;
	voltage_1 120.0;
	name l16_tpn;
	nominal_voltage 120.0;
	voltage_N 0;
};

object triplex_line {
	phases CS;
	from l16_tpn;
	name l16_tpn_tm;
	to l16_tm;
	length 29.1;
	configuration lc1000;
	groupid Triplex_Line;
};

object load {
	phases "CN";
	name l17;
	voltage_B -1200.8886-2080.000j;
	voltage_C -1200.8886+2080.000j;
	voltage_A 2401.7771;
	nominal_voltage 2401.7771;
};

object triplex_node {
	voltage_2 120.0;
	phases CS;
	voltage_1 120.0;
	name l17_tn;
	parent l17_tm;
	nominal_voltage 120.0;
	voltage_N 0;
};

object transformer {
	phases CS;
	from l17;
	name triplex_l17;
	to l17_tpn;
	configuration tc5602;
	groupid Distribution_Trans;
};

object triplex_meter {
	voltage_2 120.0;
	phases CS;
	voltage_1 120.0;
	name l17_tm;
	nominal_voltage 120.0;
	voltage_N 0;
};

object triplex_node {
	voltage_2 120.0;
	phases CS;
	voltage_1 120.0;
	name l17_tpn;
	nominal_voltage 120.0;
	voltage_N 0;
};

object triplex_line {
	phases CS;
	from l17_tpn;
	name l17_tpn_tm;
	to l17_tm;
	length 26.8;
	configuration lc1000;
	groupid Triplex_Line;
};

object load {
	phases "AN";
	name l19;
	voltage_B -1200.8886-2080.000j;
	voltage_C -1200.8886+2080.000j;
	voltage_A 2401.7771;
	nominal_voltage 2401.7771;
};

object triplex_node {
	voltage_2 120.0;
	phases AS;
	voltage_1 120.0;
	name l19_tn;
	parent l19_tm;
	nominal_voltage 120.0;
	voltage_N 0;
};

object transformer {
	phases AS;
	from l19;
	name triplex_l19;
	to l19_tpn;
	configuration tc5600;
	groupid Distribution_Trans;
};

object triplex_meter {
	voltage_2 120.0;
	phases AS;
	voltage_1 120.0;
	name l19_tm;
	nominal_voltage 120.0;
	voltage_N 0;
};

object triplex_node {
	voltage_2 120.0;
	phases AS;
	voltage_1 120.0;
	name l19_tpn;
	nominal_voltage 120.0;
	voltage_N 0;
};

object triplex_line {
	phases AS;
	from l19_tpn;
	name l19_tpn_tm;
	to l19_tm;
	length 26.9;
	configuration lc1000;
	groupid Triplex_Line;
};

object load {
	phases "AN";
	name l20;
	voltage_B -1200.8886-2080.000j;
	voltage_C -1200.8886+2080.000j;
	voltage_A 2401.7771;
	nominal_voltage 2401.7771;
};

object triplex_node {
	voltage_2 120.0;
	phases AS;
	voltage_1 120.0;
	name l20_tn;
	parent l20_tm;
	nominal_voltage 120.0;
	voltage_N 0;
};

object transformer {
	phases AS;
	from l20;
	name triplex_l20;
	to l20_tpn;
	configuration tc5600;
	groupid Distribution_Trans;
};

object triplex_meter {
	voltage_2 120.0;
	phases AS;
	voltage_1 120.0;
	name l20_tm;
	nominal_voltage 120.0;
	voltage_N 0;
};

object triplex_node {
	voltage_2 120.0;
	phases AS;
	voltage_1 120.0;
	name l20_tpn;
	nominal_voltage 120.0;
	voltage_N 0;
};

object triplex_line {
	phases AS;
	from l20_tpn;
	name l20_tpn_tm;
	to l20_tm;
	length 29.9;
	configuration lc1000;
	groupid Triplex_Line;
};

object load {
	phases "BN";
	name l22;
	voltage_B -1200.8886-2080.000j;
	voltage_C -1200.8886+2080.000j;
	voltage_A 2401.7771;
	nominal_voltage 2401.7771;
};

object triplex_node {
	voltage_2 120.0;
	phases BS;
	voltage_1 120.0;
	name l22_tn;
	parent l22_tm;
	nominal_voltage 120.0;
	voltage_N 0;
};

object transformer {
	phases BS;
	from l22;
	name triplex_l22;
	to l22_tpn;
	configuration tc5601;
	groupid Distribution_Trans;
};

object triplex_meter {
	voltage_2 120.0;
	phases BS;
	voltage_1 120.0;
	name l22_tm;
	nominal_voltage 120.0;
	voltage_N 0;
};

object triplex_node {
	voltage_2 120.0;
	phases BS;
	voltage_1 120.0;
	name l22_tpn;
	nominal_voltage 120.0;
	voltage_N 0;
};

object triplex_line {
	phases BS;
	from l22_tpn;
	name l22_tpn_tm;
	to l22_tm;
	length 31.6;
	configuration lc1000;
	groupid Triplex_Line;
};

object load {
	phases "CN";
	name l24;
	voltage_B -1200.8886-2080.000j;
	voltage_C -1200.8886+2080.000j;
	voltage_A 2401.7771;
	nominal_voltage 2401.7771;
};

object triplex_node {
	voltage_2 120.0;
	phases CS;
	voltage_1 120.0;
	name l24_tn;
	parent l24_tm;
	nominal_voltage 120.0;
	voltage_N 0;
};

object transformer {
	phases CS;
	from l24;
	name triplex_l24;
	to l24_tpn;
	configuration tc5602;
	groupid Distribution_Trans;
};

object triplex_meter {
	voltage_2 120.0;
	phases CS;
	voltage_1 120.0;
	name l24_tm;
	nominal_voltage 120.0;
	voltage_N 0;
};

object triplex_node {
	voltage_2 120.0;
	phases CS;
	voltage_1 120.0;
	name l24_tpn;
	nominal_voltage 120.0;
	voltage_N 0;
};

object triplex_line {
	phases CS;
	from l24_tpn;
	name l24_tpn_tm;
	to l24_tm;
	length 25.3;
	configuration lc1000;
	groupid Triplex_Line;
};

object load {
	phases "ABCN";
	name l28;
	voltage_B -1200.8886-2080.000j;
	voltage_C -1200.8886+2080.000j;
	voltage_A 2401.7771;
	nominal_voltage 2401.7771;
};

object triplex_node {
	voltage_2 120.0;
	phases AS;
	voltage_1 120.0;
	name l28_tn;
	parent l28_tm;
	nominal_voltage 120.0;
	voltage_N 0;
};

object transformer {
	phases AS;
	from l28;
	name triplex_l28;
	to l28_tpn;
	configuration tc5600;
	groupid Distribution_Trans;
};

object triplex_meter {
	voltage_2 120.0;
	phases AS;
	voltage_1 120.0;
	name l28_tm;
	nominal_voltage 120.0;
	voltage_N 0;
};

object triplex_node {
	voltage_2 120.0;
	phases AS;
	voltage_1 120.0;
	name l28_tpn;
	nominal_voltage 120.0;
	voltage_N 0;
};

object triplex_line {
	phases AS;
	from l28_tpn;
	name l28_tpn_tm;
	to l28_tm;
	length 29.9;
	configuration lc1000;
	groupid Triplex_Line;
};

object load {
	phases "ABCN";
	name l29;
	voltage_B -1200.8886-2080.000j;
	voltage_C -1200.8886+2080.000j;
	voltage_A 2401.7771;
	nominal_voltage 2401.7771;
};

object triplex_node {
	voltage_2 120.0;
	phases AS;
	voltage_1 120.0;
	name l29_tn;
	parent l29_tm;
	nominal_voltage 120.0;
	voltage_N 0;
};

object transformer {
	phases AS;
	from l29;
	name triplex_l29;
	to l29_tpn;
	configuration tc5600;
	groupid Distribution_Trans;
};

object triplex_meter {
	voltage_2 120.0;
	phases AS;
	voltage_1 120.0;
	name l29_tm;
	nominal_voltage 120.0;
	voltage_N 0;
};

object triplex_node {
	voltage_2 120.0;
	phases AS;
	voltage_1 120.0;
	name l29_tpn;
	nominal_voltage 120.0;
	voltage_N 0;
};

object triplex_line {
	phases AS;
	from l29_tpn;
	name l29_tpn_tm;
	to l29_tm;
	length 26.2;
	configuration lc1000;
	groupid Triplex_Line;
};

object load {
	phases "ABCN";
	name l30;
	voltage_B -1200.8886-2080.000j;
	voltage_C -1200.8886+2080.000j;
	voltage_A 2401.7771;
	nominal_voltage 2401.7771;
};

object triplex_node {
	voltage_2 120.0;
	phases CS;
	voltage_1 120.0;
	name l30_tn;
	parent l30_tm;
	nominal_voltage 120.0;
	voltage_N 0;
};

object transformer {
	phases CS;
	from l30;
	name triplex_l30;
	to l30_tpn;
	configuration tc5602;
	groupid Distribution_Trans;
};

object triplex_meter {
	voltage_2 120.0;
	phases CS;
	voltage_1 120.0;
	name l30_tm;
	nominal_voltage 120.0;
	voltage_N 0;
};

object triplex_node {
	voltage_2 120.0;
	phases CS;
	voltage_1 120.0;
	name l30_tpn;
	nominal_voltage 120.0;
	voltage_N 0;
};

object triplex_line {
	phases CS;
	from l30_tpn;
	name l30_tpn_tm;
	to l30_tm;
	length 32.6;
	configuration lc1000;
	groupid Triplex_Line;
};

object load {
	phases "CN";
	name l31;
	voltage_B -1200.8886-2080.000j;
	voltage_C -1200.8886+2080.000j;
	voltage_A 2401.7771;
	nominal_voltage 2401.7771;
};

object triplex_node {
	voltage_2 120.0;
	phases CS;
	voltage_1 120.0;
	name l31_tn;
	parent l31_tm;
	nominal_voltage 120.0;
	voltage_N 0;
};

object transformer {
	phases CS;
	from l31;
	name triplex_l31;
	to l31_tpn;
	configuration tc5602;
	groupid Distribution_Trans;
};

object triplex_meter {
	voltage_2 120.0;
	phases CS;
	voltage_1 120.0;
	name l31_tm;
	nominal_voltage 120.0;
	voltage_N 0;
};

object triplex_node {
	voltage_2 120.0;
	phases CS;
	voltage_1 120.0;
	name l31_tpn;
	nominal_voltage 120.0;
	voltage_N 0;
};

object triplex_line {
	phases CS;
	from l31_tpn;
	name l31_tpn_tm;
	to l31_tm;
	length 32.5;
	configuration lc1000;
	groupid Triplex_Line;
};

object load {
	phases "CN";
	name l32;
	voltage_B -1200.8886-2080.000j;
	voltage_C -1200.8886+2080.000j;
	voltage_A 2401.7771;
	nominal_voltage 2401.7771;
};

object triplex_node {
	voltage_2 120.0;
	phases CS;
	voltage_1 120.0;
	name l32_tn;
	parent l32_tm;
	nominal_voltage 120.0;
	voltage_N 0;
};

object transformer {
	phases CS;
	from l32;
	name triplex_l32;
	to l32_tpn;
	configuration tc5602;
	groupid Distribution_Trans;
};

object triplex_meter {
	voltage_2 120.0;
	phases CS;
	voltage_1 120.0;
	name l32_tm;
	nominal_voltage 120.0;
	voltage_N 0;
};

object triplex_node {
	voltage_2 120.0;
	phases CS;
	voltage_1 120.0;
	name l32_tpn;
	nominal_voltage 120.0;
	voltage_N 0;
};

object triplex_line {
	phases CS;
	from l32_tpn;
	name l32_tpn_tm;
	to l32_tm;
	length 23.8;
	configuration lc1000;
	groupid Triplex_Line;
};

object load {
	phases "AN";
	name l33;
	voltage_B -1200.8886-2080.000j;
	voltage_C -1200.8886+2080.000j;
	voltage_A 2401.7771;
	nominal_voltage 2401.7771;
};

object triplex_node {
	voltage_2 120.0;
	phases AS;
	voltage_1 120.0;
	name l33_tn;
	parent l33_tm;
	nominal_voltage 120.0;
	voltage_N 0;
};

object transformer {
	phases AS;
	from l33;
	name triplex_l33;
	to l33_tpn;
	configuration tc5600;
	groupid Distribution_Trans;
};

object triplex_meter {
	voltage_2 120.0;
	phases AS;
	voltage_1 120.0;
	name l33_tm;
	nominal_voltage 120.0;
	voltage_N 0;
};

object triplex_node {
	voltage_2 120.0;
	phases AS;
	voltage_1 120.0;
	name l33_tpn;
	nominal_voltage 120.0;
	voltage_N 0;
};

object triplex_line {
	phases AS;
	from l33_tpn;
	name l33_tpn_tm;
	to l33_tm;
	length 29.2;
	configuration lc1000;
	groupid Triplex_Line;
};

object load {
	phases "CN";
	name l34;
	voltage_B -1200.8886-2080.000j;
	voltage_C -1200.8886+2080.000j;
	voltage_A 2401.7771;
	nominal_voltage 2401.7771;
};

object triplex_node {
	voltage_2 120.0;
	phases CS;
	voltage_1 120.0;
	name l34_tn;
	parent l34_tm;
	nominal_voltage 120.0;
	voltage_N 0;
};

object transformer {
	phases CS;
	from l34;
	name triplex_l34;
	to l34_tpn;
	configuration tc5602;
	groupid Distribution_Trans;
};

object triplex_meter {
	voltage_2 120.0;
	phases CS;
	voltage_1 120.0;
	name l34_tm;
	nominal_voltage 120.0;
	voltage_N 0;
};

object triplex_node {
	voltage_2 120.0;
	phases CS;
	voltage_1 120.0;
	name l34_tpn;
	nominal_voltage 120.0;
	voltage_N 0;
};

object triplex_line {
	phases CS;
	from l34_tpn;
	name l34_tpn_tm;
	to l34_tm;
	length 28.7;
	configuration lc1000;
	groupid Triplex_Line;
};

object load {
	phases "ABCD";
	name l35;
	voltage_B -1200.8886-2080.000j;
	voltage_C -1200.8886+2080.000j;
	voltage_A 2401.7771;
	nominal_voltage 2401.7771;
	constant_power_A 40000+20000j;
};

object load {
	phases "AN";
	name l37;
	voltage_B -1200.8886-2080.000j;
	voltage_C -1200.8886+2080.000j;
	voltage_A 2401.7771;
	nominal_voltage 2401.7771;
};

object triplex_node {
	voltage_2 120.0;
	phases AS;
	voltage_1 120.0;
	name l37_tn;
	parent l37_tm;
	nominal_voltage 120.0;
	voltage_N 0;
};

object transformer {
	phases AS;
	from l37;
	name triplex_l37;
	to l37_tpn;
	configuration tc5600;
	groupid Distribution_Trans;
};

object triplex_meter {
	voltage_2 120.0;
	phases AS;
	voltage_1 120.0;
	name l37_tm;
	nominal_voltage 120.0;
	voltage_N 0;
};

object triplex_node {
	voltage_2 120.0;
	phases AS;
	voltage_1 120.0;
	name l37_tpn;
	nominal_voltage 120.0;
	voltage_N 0;
};

object triplex_line {
	phases AS;
	from l37_tpn;
	name l37_tpn_tm;
	to l37_tm;
	length 28.1;
	configuration lc1000;
	groupid Triplex_Line;
};

object load {
	phases "BN";
	name l38;
	voltage_B -1200.8886-2080.000j;
	voltage_C -1200.8886+2080.000j;
	voltage_A 2401.7771;
	nominal_voltage 2401.7771;
};

object triplex_node {
	voltage_2 120.0;
	phases BS;
	voltage_1 120.0;
	name l38_tn;
	parent l38_tm;
	nominal_voltage 120.0;
	voltage_N 0;
};

object transformer {
	phases BS;
	from l38;
	name triplex_l38;
	to l38_tpn;
	configuration tc5601;
	groupid Distribution_Trans;
};

object triplex_meter {
	voltage_2 120.0;
	phases BS;
	voltage_1 120.0;
	name l38_tm;
	nominal_voltage 120.0;
	voltage_N 0;
};

object triplex_node {
	voltage_2 120.0;
	phases BS;
	voltage_1 120.0;
	name l38_tpn;
	nominal_voltage 120.0;
	voltage_N 0;
};

object triplex_line {
	phases BS;
	from l38_tpn;
	name l38_tpn_tm;
	to l38_tm;
	length 33.0;
	configuration lc1000;
	groupid Triplex_Line;
};

object load {
	phases "BN";
	name l39;
	voltage_B -1200.8886-2080.000j;
	voltage_C -1200.8886+2080.000j;
	voltage_A 2401.7771;
	nominal_voltage 2401.7771;
};

object triplex_node {
	voltage_2 120.0;
	phases BS;
	voltage_1 120.0;
	name l39_tn;
	parent l39_tm;
	nominal_voltage 120.0;
	voltage_N 0;
};

object transformer {
	phases BS;
	from l39;
	name triplex_l39;
	to l39_tpn;
	configuration tc5601;
	groupid Distribution_Trans;
};

object triplex_meter {
	voltage_2 120.0;
	phases BS;
	voltage_1 120.0;
	name l39_tm;
	nominal_voltage 120.0;
	voltage_N 0;
};

object triplex_node {
	voltage_2 120.0;
	phases BS;
	voltage_1 120.0;
	name l39_tpn;
	nominal_voltage 120.0;
	voltage_N 0;
};

object triplex_line {
	phases BS;
	from l39_tpn;
	name l39_tpn_tm;
	to l39_tm;
	length 24.0;
	configuration lc1000;
	groupid Triplex_Line;
};

object load {
	phases "CN";
	name l41;
	voltage_B -1200.8886-2080.000j;
	voltage_C -1200.8886+2080.000j;
	voltage_A 2401.7771;
	nominal_voltage 2401.7771;
};

object triplex_node {
	voltage_2 120.0;
	phases CS;
	voltage_1 120.0;
	name l41_tn;
	parent l41_tm;
	nominal_voltage 120.0;
	voltage_N 0;
};

object transformer {
	phases CS;
	from l41;
	name triplex_l41;
	to l41_tpn;
	configuration tc5602;
	groupid Distribution_Trans;
};

object triplex_meter {
	voltage_2 120.0;
	phases CS;
	voltage_1 120.0;
	name l41_tm;
	nominal_voltage 120.0;
	voltage_N 0;
};

object triplex_node {
	voltage_2 120.0;
	phases CS;
	voltage_1 120.0;
	name l41_tpn;
	nominal_voltage 120.0;
	voltage_N 0;
};

object triplex_line {
	phases CS;
	from l41_tpn;
	name l41_tpn_tm;
	to l41_tm;
	length 24.8;
	configuration lc1000;
	groupid Triplex_Line;
};

object load {
	phases "ABCN";
	name l42;
	voltage_B -1200.8886-2080.000j;
	voltage_C -1200.8886+2080.000j;
	voltage_A 2401.7771;
	nominal_voltage 2401.7771;
};

object triplex_node {
	voltage_2 120.0;
	phases AS;
	voltage_1 120.0;
	name l42_tn;
	parent l42_tm;
	nominal_voltage 120.0;
	voltage_N 0;
};

object transformer {
	phases AS;
	from l42;
	name triplex_l42;
	to l42_tpn;
	configuration tc5600;
	groupid Distribution_Trans;
};

object triplex_meter {
	voltage_2 120.0;
	phases AS;
	voltage_1 120.0;
	name l42_tm;
	nominal_voltage 120.0;
	voltage_N 0;
};

object triplex_node {
	voltage_2 120.0;
	phases AS;
	voltage_1 120.0;
	name l42_tpn;
	nominal_voltage 120.0;
	voltage_N 0;
};

object triplex_line {
	phases AS;
	from l42_tpn;
	name l42_tpn_tm;
	to l42_tm;
	length 21.8;
	configuration lc1000;
	groupid Triplex_Line;
};

object load {
	phases "BN";
	name l43;
	voltage_B -1200.8886-2080.000j;
	voltage_C -1200.8886+2080.000j;
	voltage_A 2401.7771;
	nominal_voltage 2401.7771;
};

object triplex_node {
	voltage_2 120.0;
	phases BS;
	voltage_1 120.0;
	name l43_tn;
	parent l43_tm;
	nominal_voltage 120.0;
	voltage_N 0;
};

object transformer {
	phases BS;
	from l43;
	name triplex_l43;
	to l43_tpn;
	configuration tc5601;
	groupid Distribution_Trans;
};

object triplex_meter {
	voltage_2 120.0;
	phases BS;
	voltage_1 120.0;
	name l43_tm;
	nominal_voltage 120.0;
	voltage_N 0;
};

object triplex_node {
	voltage_2 120.0;
	phases BS;
	voltage_1 120.0;
	name l43_tpn;
	nominal_voltage 120.0;
	voltage_N 0;
};

object triplex_line {
	phases BS;
	from l43_tpn;
	name l43_tpn_tm;
	to l43_tm;
	length 34.1;
	configuration lc1000;
	groupid Triplex_Line;
};

object load {
	phases "AN";
	name l45;
	voltage_B -1200.8886-2080.000j;
	voltage_C -1200.8886+2080.000j;
	voltage_A 2401.7771;
	nominal_voltage 2401.7771;
};

object triplex_node {
	voltage_2 120.0;
	phases AS;
	voltage_1 120.0;
	name l45_tn;
	parent l45_tm;
	nominal_voltage 120.0;
	voltage_N 0;
};

object transformer {
	phases AS;
	from l45;
	name triplex_l45;
	to l45_tpn;
	configuration tc5600;
	groupid Distribution_Trans;
};

object triplex_meter {
	voltage_2 120.0;
	phases AS;
	voltage_1 120.0;
	name l45_tm;
	nominal_voltage 120.0;
	voltage_N 0;
};

object triplex_node {
	voltage_2 120.0;
	phases AS;
	voltage_1 120.0;
	name l45_tpn;
	nominal_voltage 120.0;
	voltage_N 0;
};

object triplex_line {
	phases AS;
	from l45_tpn;
	name l45_tpn_tm;
	to l45_tm;
	length 29.7;
	configuration lc1000;
	groupid Triplex_Line;
};

object load {
	phases "AN";
	name l46;
	voltage_B -1200.8886-2080.000j;
	voltage_C -1200.8886+2080.000j;
	voltage_A 2401.7771;
	nominal_voltage 2401.7771;
};

object triplex_node {
	voltage_2 120.0;
	phases AS;
	voltage_1 120.0;
	name l46_tn;
	parent l46_tm;
	nominal_voltage 120.0;
	voltage_N 0;
};

object transformer {
	phases AS;
	from l46;
	name triplex_l46;
	to l46_tpn;
	configuration tc5600;
	groupid Distribution_Trans;
};

object triplex_meter {
	voltage_2 120.0;
	phases AS;
	voltage_1 120.0;
	name l46_tm;
	nominal_voltage 120.0;
	voltage_N 0;
};

object triplex_node {
	voltage_2 120.0;
	phases AS;
	voltage_1 120.0;
	name l46_tpn;
	nominal_voltage 120.0;
	voltage_N 0;
};

object triplex_line {
	phases AS;
	from l46_tpn;
	name l46_tpn_tm;
	to l46_tm;
	length 27.2;
	configuration lc1000;
	groupid Triplex_Line;
};

object load {
	voltage_B -1200.8886-2080.000j;
	phases "ABCN";
	name l47;
	constant_current_A 14.5725-10.409j;
	voltage_C -1200.8886+2080.000j;
	constant_current_C 1.7282+17.8247j;
	voltage_A 2401.7771;
	constant_current_B -16.3007-7.4157j;
	nominal_voltage 2401.7771;
};

object load {
	phases "ABCN";
	name l48;
	constant_impedance_B 54.5672+38.9766j;
	constant_impedance_C 54.5672+38.9766j;
	voltage_B -1200.8886-2080.000j;
	voltage_C -1200.8886+2080.000j;
	voltage_A 2401.7771;
	nominal_voltage 2401.7771;
	constant_impedance_A 54.5672+38.9766j;
};

object load {
	phases "ABCN";
	name l49;
	voltage_B -1200.8886-2080.000j;
	voltage_C -1200.8886+2080.000j;
	voltage_A 2401.7771;
	constant_power_C 35000+25000j;
	constant_power_B 70000+50000j;
	constant_power_A 35000+25000j;
	nominal_voltage 2401.7771;
};

object load {
	phases "ABCN";
	name l50;
	voltage_B -1200.8886-2080.000j;
	voltage_C -1200.8886+2080.000j;
	voltage_A 2401.7771;
	nominal_voltage 2401.7771;
};

object triplex_node {
	voltage_2 120.0;
	phases CS;
	voltage_1 120.0;
	name l50_tn;
	parent l50_tm;
	nominal_voltage 120.0;
	voltage_N 0;
};

object transformer {
	phases CS;
	from l50;
	name triplex_l50;
	to l50_tpn;
	configuration tc5602;
	groupid Distribution_Trans;
};

object triplex_meter {
	voltage_2 120.0;
	phases CS;
	voltage_1 120.0;
	name l50_tm;
	nominal_voltage 120.0;
	voltage_N 0;
};

object triplex_node {
	voltage_2 120.0;
	phases CS;
	voltage_1 120.0;
	name l50_tpn;
	nominal_voltage 120.0;
	voltage_N 0;
};

object triplex_line {
	phases CS;
	from l50_tpn;
	name l50_tpn_tm;
	to l50_tm;
	length 29.6;
	configuration lc1000;
	groupid Triplex_Line;
};

object load {
	phases "ABCN";
	name l51;
	voltage_B -1200.8886-2080.000j;
	voltage_C -1200.8886+2080.000j;
	voltage_A 2401.7771;
	nominal_voltage 2401.7771;
};

object triplex_node {
	voltage_2 120.0;
	phases AS;
	voltage_1 120.0;
	name l51_tn;
	parent l51_tm;
	nominal_voltage 120.0;
	voltage_N 0;
};

object transformer {
	phases AS;
	from l51;
	name triplex_l51;
	to l51_tpn;
	configuration tc5600;
	groupid Distribution_Trans;
};

object triplex_meter {
	voltage_2 120.0;
	phases AS;
	voltage_1 120.0;
	name l51_tm;
	nominal_voltage 120.0;
	voltage_N 0;
};

object triplex_node {
	voltage_2 120.0;
	phases AS;
	voltage_1 120.0;
	name l51_tpn;
	nominal_voltage 120.0;
	voltage_N 0;
};

object triplex_line {
	phases AS;
	from l51_tpn;
	name l51_tpn_tm;
	to l51_tm;
	length 28.2;
	configuration lc1000;
	groupid Triplex_Line;
};

object load {
	phases "ABCN";
	name l52;
	voltage_B -1200.8886-2080.000j;
	voltage_C -1200.8886+2080.000j;
	voltage_A 2401.7771;
	nominal_voltage 2401.7771;
};

object triplex_node {
	voltage_2 120.0;
	phases AS;
	voltage_1 120.0;
	name l52_tn;
	parent l52_tm;
	nominal_voltage 120.0;
	voltage_N 0;
};

object transformer {
	phases AS;
	from l52;
	name triplex_l52;
	to l52_tpn;
	configuration tc5600;
	groupid Distribution_Trans;
};

object triplex_meter {
	voltage_2 120.0;
	phases AS;
	voltage_1 120.0;
	name l52_tm;
	nominal_voltage 120.0;
	voltage_N 0;
};

object triplex_node {
	voltage_2 120.0;
	phases AS;
	voltage_1 120.0;
	name l52_tpn;
	nominal_voltage 120.0;
	voltage_N 0;
};

object triplex_line {
	phases AS;
	from l52_tpn;
	name l52_tpn_tm;
	to l52_tm;
	length 29.7;
...